input_files/CEPEL_DATA/anarede.pwf
(
( Gravacao de .PWF - CART
( Versao do Anarede: 12.03.04
( Data e Hora da Gravacao: 16/07/2026 - 15:03:37                                                           
(
TITU
ONS * PARPEL 2027-2031 * INVERNO 2031 MÁXIMA NOTURNA                            
DOPC IMPR
(Op) E (Op) E (Op) E (Op) E (Op) E (Op) E (Op) E (Op) E (Op) E (Op) E
QLIM L VLIM L CREM L CTAP L STEP L NEWT L RCVG L RMON L FILE L SUBS L
CONT L NOVO L CELO L MFCT L AREG L STPO L VLCR L CPHS L IANG L
99999
DCTE
(Mn) ( Val) (Mn) ( Val) (Mn) ( Val) (Mn) ( Val) (Mn) ( Val) (Mn) ( Val) 
BASE   100. DASE   100. TEPA    .01 EXST    .04 TETP     5. TBPA     5.
TLPP     1. TEPR    .01 QLST    .04 TLPR    .01 TLPQ     2. TSBZ    .01
TSBA     5. ASTP    .05 VSTP     5. TLVC    .05 TLTC    .01 TSFR  .1E-7
ZMAX   500. TLPV     .5 VDVM   200. VDVN    40. TUDC   .001 TADC    .01
PGER    30. TPST    .02 VFLD    70. ZMIN   .001 HIST    470 LFIT     10
ACIT    100 LFCV      1 DCIT     10 VSIT     10 LPIT     50 LFLP     10
PDIT     10 LCRT    200 LPRT     60 CSTP     5. ASDC     1.
ICIT     50 DMAX      5 FDIV     2. ICMN    .05 VART     5. TSTP     32
ICMV     .5 APAS    90. CPAR    70. VAVT     2. VAVF     5. VMVF    15.
VPVT     2. VPVF     5. VPMF    10. VSVF    20. VINF     1. VSUP     1.
TLSI     0. NDIR    20. STTR     5. TRPT   100. STIR     1. BFPO     1.
LFPO     .1 TLMT     0. TLMF     0. TLMG     0. PARS    10.            
99999
DBAR
(Num)OETGb(   nome   )Gl( V)( A)( Pg)( Qg)( Qn)( Qm)(Bc  )( Pl)( Ql)( Sh)Are(Vf)M(1)(2)(3)(4)(5)(6)(7)(8)(9)(10
   10 L1 VANGRA1UNE001 5 997-11. 650. 96.4 -70. 240.       34.9 22.3     2511000                                   
   11 L1 VANGRA2UNE001 5 983-11.1350.306.9-350. 600.       83.1 61.5     2511000                                   
   12 L1 VLCBARRUHE006 51024-8.5 880.-101.-540. 420.                     2041000                                   
   13 L1 TLCBARRSIN000 51036-13.   0.   0.   0.   0.                     2041000                                   
   14 L1 VFUNIL-UHE003 5 957-19. 186.-111.-150. 150.                     2551000                                   
   16 L1 VFURNASUHE007 51010-9.71021.-163.-350. 350.                     3521000                                   
   17 L1 TFURNASSIN001 5 997-16.   0.-46.5-160.  80.                     3521000                                   
   18 L1 VITUMBIUHE006 51025  4.1915.-13.7-546. 600.                     3511000                                   
   19 L1 TITUMBISIN000 51031-2.9   0.   0.   0.   0.                     3511000                                   
   20 L1 VMARIMBUHE007 51046-6.41250.-474.-560. 560.                     3511000                                   
   21 L1 VMANSO-UHE002 51032-31.  67.29.35 -40.  42.                     4721020                                   
   22 L1 VM.MORAUHE006 51015-8.8 262.-35.4-120. 126.        1.8   0.     3521000                                   
   23 L1 TCBRAV-SIN000 5104318.1   0.   0.   0.   0.                     5131000                                   
   24 L1 VM.MORBUHE004 5 977-10. 151.29.46 -24.  62.                     2081000                                   
   28 L1 VPCOLOMUHE004 51011-14. 276.-10.2-100. 100.                     2081000                                   
   30 L1 VSCRU19UTE000 51009-23.   0.   0.   0.   0.                     2541000                                   
   31 L1 VSCRU13UTE000 5 965-23.   0.   0.   0.   0.                     2541000                                   
   32 L1 VSCRU16UTE002 51030-17. 350.83.94-180. 220.                     2541000                                   
   35 L1 VCORUMBUHE003 5 9982.89 320.-22.8-180. 180.                     5121000                                   
   36 L1 VS.MESAUHE003 5 95913.71100.-228.-480. 480.                     5111000                                   
   37 L1 TS.MESASIN000 5 9818.13   0.   0.   0.   0.                     5111000                                   
   38 L1 NGRAJA2SIN001 51014-27.   0.12.15-120. 200.                     2511000                                   
   41 L1 TVITOR2SIN001 51027-13.   0..8234 -30.  60.                     3021000                                   
   44 L1 NGRAJA1SIN001 51014-27.   0.12.36-120. 200.                     2511000                                   
   47 L1 TVITOR1SIN001 51028-13.   0.1.359 -30.  60.                     3021000                                   
   48 L1 QIBIUNASIN003 51012-35.   0.-301.-756. 840.    86               2041000                                   
   50 L1 QTPRETOSIN001 51008-38.   0.-21.9-180. 300.                     2011000                                   
   52 L  EGNA-I--RJ345 51038 -.5                                         2521000                                   
   53 L1 QGNA1G-UTE003 510144.65 872.-186.-292.616.5                     2521000                                   
   54 L1 QGNA1V-UTE001 510025.25 477.-141.-241. 291.                     2521000                                   
   56 L  IIVAIP3-PR069 6 982-25.                                         2011000                                   
   57 L  IIVAIP2-PR069 6 914-25.                                         2011000                                   
   58 L  UIVAIP2-PR000 61033-25.                                         20110001                                  
   59 L  UIVAIP3-PR000 61042-25.                                         20110001                                  
   60 L  AF.IGUA-PR765 11006-16.                                         2011000                                   
   61 L  CFOZ60--PR500111049-13.                                         2401000                                   
   62 L  AIV-FZ1CAP765 11039-29.                                         20110002                                  
   63 L  AIV-FZ2CAP765 11038-29.                                         20110002                                  
   64 L  AIV-FZ3CAP765 11036-29.                                         20110342                                  
   65 L  AIVAIPO-PR765 11040-24.                                         2011000                                   
   66 L  BIVAIPA-PR525 21034-25.                                         1011000                                   
   67 L  IIVAIP1-PR069 6 913-25.                            .24   0.     2011000                                   
   68 L  UIVAIP1-PR000 61033-25.                                         20110001                                  
   69 L  AIV-IT1CAP765 11026-20.                                         20110002                                  
   70 L  AIV-IT2CAP765 11027-20.                                         20110002                                  
   71 L  AIV-IT3CAP765 11027-20.                                         20110002                                  
   72 L  AITABER-SP765 11043-28.                                         2011000                                   
   73 L  AIT-TP1CAP765 11002-23.                                         20110002                                  
   74 L  AIT-TP2CAP765 11002-23.                                         20110002                                  
   75 L  AIT-TP3CAP765 1 999-23.                                         20110002                                  
   76 L  ATPRETO-SP765 11005-32.                                         2011000                                   
   77 L  CTPRETO-SP500 31061-31.                                         2021000                                   
   78 L  ETPRETO-SP345 51038-37.                                         2041000                                   
   79 L  ITPRETO-SP069 6 943-31.                                         2011000                                   
   80 L  UTPRET3-SP000 61004-31.                                         20110001                                  
   81 L  UTPRET4-SP000 61014-38.                                         20110001                                  
   82 L  ETPRET2-SP345 51040-37.                                         2041000                                   
   84 L  GRESEN2-RJ138 51007-24.                                         2551000                                   
   85 L  CFOZ50--PR500 31042-8.2                            60.   0.     2411000                                   
   86 L  EIBIUNA-SP345 51047-35.                                         2041000                                   
   87 L  CRESEND-RJ500 31052-23.                                         2511015                                   
   90 L  EVIANA--ES345 51033-9.9                                         3021000                                   
   91 L  NVIANT1-ES013 61030-13.                                         3021000                                   
   92 L  CSB-SM1CAP500 31020-1.8                                         51110002                                  
   93 L  CSB-SM2CAP500 31031 -.7                                         51110002                                  
   94 L  CSB-SM3CAP500 31034 -1.                                         51110002                                  
   95 L  NVIANT2-ES013 61030-13.                                         3021000                                   
   96 L  NVIANT3-ES013 61030-13.                                         3021000                                   
   99 L  CAS-AR1-SP500 31089-23.                                         20210002                                  
  100 L  CMARIMB-MG500 31092-12.                                         3511000                                   
  101 L  CARARAQ-SP500 31084-19.                                         2021000                                   
  102 L  CP.CALD-MG500 31066-23.                                         3511000                                   
  103 L  CCAMPIN-SP500 31078-28.                                         2021000                                   
  104 L  CC.PAUL-SP500 31063-24.                                         2021000                                   
  105 L  CANGRA--RJ500 31064-19.                                         2511000                                   
  106 L  CADRIAN-RJ500 31060-21.                                         2511000                                   
  107 L  CGRAJAU-RJ500 31059-23.                                         2511000                                   
  108 L  CS.JOSE-RJ500 31059-22.                                         2511000                                   
  110 L  UGR1T52-RJ000 61010-27.                                         25110001                                  
  112 L  CBA-IB1-PR500 31088-33.                                         10110352                                  
  113 L  CBA-IB2-PR500 31088-33.                                         10110352                                  
  114 L  CBA-IT1-PR500 31089-33.                                         10110002                                  
  115 L  CBA-IT1CAP500 31007-37.                                         10110002                                  
  116 L  GIMBTAP-RJ138 51008-23.                                         25610002                                  
  117 L  CCAMPO2-RJ500 31040-3.3                                         2511000                                   
  118 L  UBANDT4-GO000 6 959-12.                                         51210001                                  
  119 L  NBANDT4-GO013 6 959-12.                                         5121000                                   
  120 L  EP.CALD-MG345 51020-26.                                         3521000                                   
  121 L  UPCAT51-MG000 61037-30.                                         35110001                                  
  122 L  CIBIUNA-SP500 31099-33.                                         2021000                                   
  123 L  ECAMPIN-SP345 51036-32.                                         2041000                                   
  124 L  UCAMP51-SP000 61018-33.                                         20210001                                  
  125 L  CIB-BA1CAP500 31050-33.                                         20210002                                  
  126 L  EGUARUL-SP345 51033-40.                                         2041000                                   
  127 L  EMO-RL1-SP345 51033-38.                                         20410002                                  
  128 L  EMO-RL2-SP345 51033-38.                                         20410152                                  
  129 L  EMOGI---SP345 51031-38.                                         2041000                                   
  130 L  CIB-BA2CAP500 31050-33.                                         20210002                                  
  131 L  EM.MORA-MG345 51033-14.                                         3521000                                   
  133 L  UADRT1A-RJ000 61029-23.                                         25210001                                  
  134 L  ELCBARR-SP345 51035-13.                                         2041000                                   
  135 L  UJACT1A-RJ000 61015-27.                                         25210161                                  
  136 L  EFURNAS-MG345 51033-16.                                         3521000                                   
  137 L  UJACT2A-RJ000 61015-27.                                         25210161                                  
  138 L  EITUTIN-MG345 51028-21.                                         3521000                                   
  139 L  UADRT51-RJ000 61009-22.                                         25110601                                  
  140 L  EADRIAN-RJ345 51032-22.                                         2521000                                   
  141 L  UADRT53-RJ000 61012-22.                                         25110001                                  
  142 L  UADRT55-RJ000 61011-22.                                         25110601                                  
  143 L  UADRT2B-RJ000 61029-23.                                         25210301                                  
  144 L  EJACARE-RJ345 51024-24.                                         2521000                                   
  145 L  UADRT1B-RJ000 61029-23.                                         25210001                                  
  146 L  UADRT2A-RJ000 61029-23.                                         25210001                                  
  147 L  ECAMPOS-RJ345 51037-5.4                                         2521000                                   
  148 L  UCAMPO1-RJ000 61030-8.6                                         25210001                                  
  149 L  EVITORI-ES345 51026-13.                                         3021000                                   
  150 L  UVITAT1-ES000 61020-16.                                         30210001                                  
  156 L  NVITAT4-ES013 61016-16.                                         3021000                                   
  158 L  UVITAT4-ES000 61016-16.                                         30210001                                  
  159 L  NJA-R30-RJ013 61015-27.                                         2521016                                   
  160 L  NJB-R60-RJ013 61015-27.                                         2521016                                   
  161 L  FMO-FCE-SP230 51024-38.                                         2051000                                   
  162 L  UCAMAT1-SP000 61008-36.                                         20410001                                  
  163 L  NCAMPI1-SP013 6 978-36.                                         2041000                                   
  164 L  UPCAT02-MG000 61050-30.                                         35210501                                  
  165 L  NP.CAL2-MG013 61050-30.                                         3521050                                   
  166 L  UJACT1B-RJ000 61015-27.                                         25210161                                  
  167 L  NJA-R60-RJ013 61015-27.                                         2521016                                   
  169 L  GSJOSE2-RJ138 51018-23.                                         2541000                                   
  170 L  GP.CALD-MG138 51050-29.                                         3591000                                   
  171 L  GCAMPI1-SP138 51019-36.                                         2071000                                   
  172 L  GIMBARE-RJ138 51005-25.                                         2561000                                   
  173 L  GADRIAN-RJ138 51008-23.                                         2561000                                   
  174 L  GR.LEAO-RJ138 51030-13.                                         2581000                                   
  175 L  GCAMPOS-RJ138 51028-8.5                                         2591000                                   
  176 L  UCAMP54-SP000 61016-33.                                         20210001                                  
  177 L  GVITOR1-ES138 51001-16.                                         3041000                                   
  178 L  GGRAJAU-RJ138 51008-26.                                         2541000                                   
  179 L  UGR2T54-RJ000 61010-27.                                         25110001                                  
  180 L  GJACARE-RJ138 51004-27.                                         2541000                                   
  181 L  GANGDEF-RJ138 51019-25.                                         2511037                                   
  182 L  GFUNIL--RJ138 51003-23.                                         2551000                                   
  183 L  GC.PAUL-SP138 51003-25.                                         2141000                                   
  184 L  GS.CRUZ-RJ138 51009-23.                                         2541000                                   
  185 L  GANGRA--RJ138 51020-13.                                         2551000                                   
  186 L  NCAMP54-SP013 61016-33.                                         2021000                                   
  187 L  GM.MORA-MG138 51035-16.                                         3581000                                   
  189 L  UBGERT1-DF000 61028-8.2                                         56310001                                  
  190 L  GP.COL--MG138 51018-20.                                         2081000                                   
  192 L  NCAMPO1-RJ013 61030-8.6                                         2521000                                   
  194 L  NADRT55-RJ013 6 927-22.                                         2511080                                   
  195 L  NADRT53-RJ013 6 928-22.                                         2511000                                   
  196 L  NCAMP51-SP013 6 934-33.                                         2021000                                   
  197 L  NADRT51-RJ013 61009-22.                                         2511080                                   
  198 L  NPCALAT-MG013 61037-30.                                         3511000                                   
  199 L  NVITAT1-ES013 61020-16.                                         3021000                                   
  200 L  UUCAMP1-RJ000 61029-11.                                         2591000                                   
  201 L1 VRSIL-1UTE000 51029-11.   0.   0.   0.   0.                     2591000                                   
  202 L  UUCAMP2-RJ000 61029-12.                                         2591000                                   
  203 L  VRSIL-2UTE000 51029-12.                                         2591000                                   
  204 L  NADRT1B-RJ013 61029-23.                                         2521000                                   
  205 L  NADRT2A-RJ013 61029-23.                                         2521000                                   
  206 L  NADRT2B-RJ013 61029-23.                                         2521030                                   
  208 L  NBGERT1-DF013 61028-8.2                                         5631000                                   
  209 L  NADRT1A-RJ013 61029-23.                                         2521000                                   
  210 L  CITUMBI-MG500 31085-2.9                                         3511000                                   
  211 L  UCAMPO2-RJ000 61030-8.7                                         25210001                                  
  212 L  NCAMPO2-RJ013 61030-8.7                                         2521000                                   
  213 L  EMARIMB-MG345 51040-9.9                                         3521000                                   
  214 L  UMARIMB-MG000 61041-9.4                                         35110001                                  
  216 L  EP.COL--MG345 51040-7.8                                         3521000                                   
  217 L  EITUMBI-MG345 51034-5.1                                         3521000                                   
  218 L  EBANDEI-GO345 5 986-8.9                                         5121000                                   
  219 L  EB.SUL--DF345 51042-.97                                         5621000                                   
  220 L  ECORUMB-GO345 51035-2.6                                         5121000                                   
  221 L  LB.GERA-DF034 51028 -8.                                         564 991                                   
  222 L  UBSULT6-DF000 61043 -4.                                         56210001                                  
  223 L  UBANDT1-GO000 6 958-13.                                         51210001                                  
  224 L  UBANDT2-GO000 6 958-13.                                         51210001                                  
  225 L  FITUMBI-MG230 51045-7.2                                         3531000                                   
  226 L  FBANDEI-GO230 5 986-12.                                         5131000                                   
  227 L  FB.GERA-DF230 51042-3.9                                         5631000                                   
  228 L  FB.SUL--DF230 51042-3.7                                         5631000                                   
  229 L  FB.ALTO-GO230 51022-9.4                                         5131000                                   
  230 L  FS.MESA-GO230 510458.56                                         5131000                                   
  231 L  FR.VERD-GO230 51001-16.                                         5131000                                   
  232 L  NBSULT6-DF013 61043 -4.                                         5621000                                   
  233 L  CSAMAMB-DF500 310323.36                                         5611000                                   
  234 L  ESAMAMB-DF345 51046.033                                         5621000                                   
  235 L  CS.MESA-GO500 310338.13                                         5111000                                   
  236 L  GB.SUL--DF138 51015-5.1                                         5641000                                   
  237 L  GSAMAMB-DF138 51013-2.9                                         5641000                                   
  238 L  GR.VERD-GO138 51033-20.                                         5171000                                   
  239 L  GS.MESA-GO138 51049 6.9                                         5181000                                   
  240 L  URVERT1-GO000 6 949-20.                                         51310001                                  
  241 L  NRVERT1-GO013 6 949-20.                                         5131000                                   
  242 L  NBANDT1-GO013 6 958-13.                                         5121000                                   
  243 L  NBANDT2-GO013 6 958-13.                                         5121000                                   
  244 L  UBSU-T7-DF000 61024-5.4                                         56210001                                  
  245 L  NBSULT7-DF013 61024-5.4                                         5621000                                   
...
99999
DLIN
(De )d O d(Pa )NcEPM( R% )( X% )(Mvar)(Tap)(Tmn)(Tmx)(Phs)(Bc  )(Cn)(Ce)Ns(Cq)(1)(2)(3)(4)(5)(6)(7)(8)(9)(10 (U) Uop
   38       17954         3.0195         1.                     200.200.   75.                                 1   1
   44       11052             3.         1.                     200.200.  100.                                 1   1
   50        81 4          2.498         1.                     500.500.  225.                                 1   1
   52     46206 1      .04   .49 8.904                          12751492  1275
   52     46206 2      .04   .49 8.904                          12751492  1275
   52     48333 1           .944      1.046  .95 1.05     -4432815001800211800                                 1   1
   53        52 1          1.085         1.                     99999999  370.                                 1   1
   54        52 1          2.186         1.                     99999999  550.                                 1   1
   56        59 3          3.385         1.                     550.550.  251.                                 1   1
   57        58 2          3.606         1.                     550.550.   73.                                 1   1
   60        62 1     .076  1.85 927.8                          36844173  3684
   60        63 2     .076  1.85 929.1                          36844173  3684
   60        64 3     .082 1.899 954.5                          36844173  3684
   60     43810 2           .806      .9524                     16501815  1880                                 1   1
   60     43862 1           .743      .9524                     16501815  1880                                 1   1
   60     43899 3            .74      .9524                     16501815  1880                                 1   1
   60     43915 4           .746      .9524                     16501815  1880                                 1   1
   60     43921 5           .731      .9524                     16501980  2309                                 1   1
   61     10827 1     .007  .135  14.8                          32903918  3918
   61     43421 1     .116 1.999 245.8                          29103624  3624
   61     43422 2     .116 1.999 245.8                          29103624  3624
   61     43810 2          -.164         1.                     99999999  9999                                 1   1
   61     43862 1          -.121         1.                     99999999  9999                                 1   1
   61     43899 3          -.117         1.                     99999999  9999                                 1   1
   61     43915 4          -.123         1.                     99999999  9999                                 1   1
   61     43921 5          -.114         1.                     99999999  9999                                 1   1
   65        58 2           .823         1.                     16501815  115.                                 1   1
   65        59 3           .773         1.                     16501832  2598                                 1   1
   65        68 1           .843         1.                     16501815  1650                                 1   1
   66        68 1           -.17      1.006 .8381.053        99916501815321815                                 1   1
   67        68 1          3.649         1.                     550.550.  1650                                 1   1
   69        72 1     .064  1.53  760.                          41334174  4133
   72        70 2     .063  1.53 755.7                          41334174  3684
   72        71 3     .064  1.54  760.                          41334174  3684
   73        76 1     .072  1.75 877.5                          41334174  4133
   76        74 2     .072  1.75  873.                          41334174  3684
   76        75 3 T   .078  1.79 898.2                          41334174  3684
   76        80 3           .697         1.                     16501815   60.                                 1   1
   76        81 4          1.028         1.                     15001650  118.                                 1   1
   76     41512 5           .993         1.                     15001650  1500                                 1   1
   76     41514 6           .983         1.                     15001650  1500                                 1   1
   76     41516 7           .931         1.                     15001799  1500                                 1   1
   76     41518 1           .839         1.                     16501650  1650                                 1   1
   76     41520 2           .817         1.                     16501815  1650                                 1   1
   77        80 3           -.03      1.057  .88 1.16         771650181532150.                                 1   1
   77       104 1 T   .167  2.54 216.6                          18552337  1855
   77       598 1 T   .106 1.441 133.4                          18552252  1855
   77     41518 1          -.165      1.057  .88 1.16         7716501650331650                                 1   1
   77     41520 2          -.162      1.057  .88 1.16         7716501815331650                                 1   1
   78        81 4          -.107      1.026 .8591.115         781500165032103.                                 1   1
   78       449 1 T  .0742 .6448 11.34                          11841392  1392
   78       449 2 T  .0742 .6448 11.34                          11841392  1392
   78       464 3 T  .1089  .973 17.07                          912.1103  912.
   78       471 1    .0922 .8014 14.08                          11841392  1184
   78       471 2    .0922 .8014  14.1                          11841392  1184
   78       474 1     .068  .944  21.2                          12801613  1280
   78     41512 5          -.093      1.026 .8591.115         7815001650331500                                 1   1
   78     41820 1     .001  .001                                99999999  9999
   78     41823 1     .001  .001                                99999999  9999
   79        80 3          3.545         1.                     550.550.  150.                                 1   1
   82       420 1    .13391.2081 21.08                          912.1103  912.
   82       464 1 T  .1066 .9279 16.08                          912.1103  100.
   82       464 2 T  .1066 .9279 16.08                          912.1103  100.
   82     41514 6          -.092      1.029 .8591.115         8215001650331500                                 1   1
   82     41516 7          -.058      1.029 .8591.115         8215001799331500                                 1   1
   82     41821 1     .001  .001                                99999999  9999
   82     41822 1     .001  .001                                99999999  9999
   84      1780 1     .709 1.804   .46                          120.120.  120.
   84      1780 2     .709 1.804   .46                          120.120.  120.
   84     11797 1      .32  .813  .207                          122.130.  122.
   84     40401 2      .39  .991  .253                          122.130.  130.
   84     42417 5     .004-1.667         1.                     300.360.  360.                                 1   1
   85      1103 3 T  .0058.10069 10.04                          27283377  3377
   85      1103 4 T .00564.09795  9.69                          27283377  3377
   86        48 1         .71475      1.013                     10501050  1050                                 1   1
   86        82 1     .187 2.602  60.1                          12801613  300.
   86       474 1     .155 2.162  49.5                          12801613  1280
   86       488 1    .09481.4987 41.91                          20202390  2390
   86       488 2    .09481.4987 41.91                          20202390  2390
   86     41522 1           -.25      1.005 .8951.048       -122750.750.33750.                                 1   1
   86     41524 2          -.254      1.005 .8951.048       -122750.750.33750.                                 1   1
   86     41526 3           .236      1.005 .8951.048       -122750.900.33750.                                 1   1
   87      9605 1 T   .081 1.221 106.8                          18552337  1855
   87     42417 5     .121 4.833      1.018   .9  1.1        -84300.360.21360.                                 1   1
   87     42426 1          8.333         1.                     150.180.  150.                                 1   1
   87     42428 2         11.458         1.                     120.144.  144.                                 1   1
   90      2608 1          4.847      1.005                     225.270.   51.                                 1   1
   90      2618 2          4.861      1.005                     225.270.  150.                                 1   1
   90      2628 3           4.65      1.005                     225.270.  100.                                 1   1
   90      3032 1 T   .225 2.468 41.54                          747.747.  853.
   90     42441 4          3.081      1.005                     400.480.  400.                                 1   1
   91      2608 1            9.7         1.                      75. 75.   75.                                 1   1
   95      2618 2          9.773         1.                      75. 75.   75.                                 1   1
   96      2628 3           9.83         1.                      75. 75.   75.                                 1   1
   99       101 1     .198 3.098 317.5                          19061906  1906
   99       556 1     .001  .001       1.05                     99999999   50.                                 1   1
  100        20 1           .903         1.                     15201520  1520                                 1   1
  100       214 9          2.979       1.05  .95 1.05        100560.717.32560.                                 1   1
  100       535 1 T   .153 2.356 203.8                          17321732  1732
  100      3110 1    .12531.8381 160.4                          19922390  1992
  100      4598 1     .006  .097   7.4                          18552337  1855
  100      4598 2     .006  .086   7.2                          18552337  1855
  100      4598 3    .0064 .0824 7.176                          19922390  1992
  101       102 1     .156  2.46 208.5                          18552337  1855
  101       103 1      .15  2.39 202.6                          18552337  1855
  101      4598 1 T   .179 2.762 236.4                          18552337  1855
  101      4598 2 T   .178 2.748 236.8                          18552337  1855
  102       12151     .045 4.376       1.05                     600.720.  840.                                 1   1
  102      1503 1     .129 1.993 167.7                          18552337  1855
  102     4792852     .045 4.376       1.05                     600.720.  840.                                 1   1
  103       12451          2.946       1.05                     560.717.  560.                                 1   1
  103       17654         2.9116       1.05                     560.728.  560.                                 1   1
  103       609 1      .06  .946 76.26                          18552337  1855
  103      6609 1     .024  .368  31.7                          18552337   61.
  103      6609 2     .017  .26738.833                          24773464  2337
  104        87 1     .051  .782  66.5                          18552337  2337
  104       598 1     .075  1.15  98.9                          18552252  1855
  104       609 1     .148 2.347 193.3                          18552337  1855
  104      1503 1     .052  .792  66.5                          18552337  2337
  104      3010 1     .189 3.158 709.6                          24423464  3464
  104      3010 2     .189 3.158 709.6                          24423464  3464
  104      3383 1     .014  .205 30.35                          27282728  2728
  104      9626 1     .098  1.68  252.                          24732598   72.
  104     4166457         4.7375       1.05                     250.262.  250.                                 1   1
  104     4166659         4.9492       1.05                     250.270.  250.                                 1   1
  105        10 1           1.97      1.075                     759.759.  759.                                 1   1
  105        11 1            .95        1.1                     14501450  1450                                 1   1
  105       104 1     .093 1.456 122.5                          18552337  2337
  105      9601 1     .092 1.363 115.3                          18552337  558.
  105      9608 1 T   .101 1.518 127.8                          18552337  1855
  105     4240158          3.988       1.05                     400.400.  210.                                 1   1
  106       107 1     .033  .673 72.57                          25982598  2598
  106       108 1     .019  .389  42.1                          25982598  2598
  106       13951          1.962       1.05                     560.644.  2598                                 1   1
  106       14153          3.042       1.05                     560.672.  560.                                 1   1
  106       14255           2.93       1.05                     560.717.  560.                                 1   1
  106      9626 1     .012  .193 29.69                          24732598  2598
  107       11052          2.141       1.05                     600.720.   75.                                 1   1
  107       17954           2.15       1.05                     600.720.  150.                                 1   1
  107     4240756          2.142       1.05                     600.720.  600.                                 1   1
  107     4240858          2.114       1.05                     600.720.  600.                                 1   1
  108     4243111 T        2.327       1.05                     900.1080  900.                                 1   1
  108     4243212 T        2.302       1.05                     900.1080  900.                                 1   1
  108     4243313           2.27       1.05                     600.720.  600.                                 1   1
  108     4243414          2.288       1.05                     600.720.  600.                                 1   1
  112       895 1     .001  .001       1.05                     12992252  2252                                 1   1
  113       895 2     .001  .001       1.05                     12992252  2252                                 1   1
  114       895 1     .001  .001       1.05                     99999999  9999                                 1   1
  115      6609 1     .263  4.25  659.                          29103668  2616
  116       172 1D    .127  .713   .21                          145.145.  145.
  116      7896 4    2.29612.883 3.787                          146.207.  207.
  117      4353 1     .131 2.346 348.3                          28023403  2802
  117      4353 2     .132  2.34 348.3                          28023403  2802
  119       118 4         15.049         1.                      75. 75.   75.                                 1   1
  120       12151    -.018-2.622      .9984  .95 1.11        120600.720.19840.                                 1   1
  120       126 1       .6  5.95  92.8                          776.977.  853.
  120       126 2     .606  6.02  93.8                          776.977.  853.
  120       164 2     .031 7.624       .957                     150.160.  150.                                 1   1
  120       697 1     .394  4.39 74.85                          853.1075  125.
  120     42000 1          7.754       .957                     150.160.  160.                                 1   1
  120     42004 4            7.2       .957                     150.150.  150.                                 1   1
  120     42006 5           4.54       .957                     225.270.  315.                                 1   1
  120     42008 6          4.556       .957                     225.270.  315.                                 1   1
  120     4792852    -.018-2.622      .9984  .95 1.11        120600.720.19840.                                 1   1
  122      6609 1     .079 1.214 103.2                          18552337  1855
  122     41522 1         1.8016       1.05                     750.750.  750.                                 1   1
  122     41524 2         1.7995       1.05                     750.750.  750.                                 1   1
  122     41526 3         1.2804       1.05                     750.900.  750.                                 1   1
  123       120 1 T   .359 3.945  66.7                          853.1075  853.
  123       12451          -.528      1.019  .95 1.11        123560.717.17560.                                 1   1
  123       162 1            5.5         1.                     300.360.  300.                                 1   1
  123       17654          -.413      1.019  .95 1.11        123560.728.17560.                                 1   1
  123     41504 2            5.5         1.                     300.360.  300.                                 1   1
  123     41505 3            5.5         1.                     300.360.  300.                                 1   1
  123     41506 4            5.5         1.                     300.360.  300.                                 1   1
  125       112 1     .308 3.958 444.8                          12992252  2252
  126        86 1     .109 1.826  51.2                          17072150  218.
  126        86 2     .109 1.824  51.2                          17072150  269.
  126       123 1     .252 2.761  46.5                          853.1075  853.
  126       442 1     .116 1.132  17.7                          776.977.  558.
  129       697 1      .18  2.03 34.67                          717.717.  125.
  129     41660 1          2.436         1.                     500.590.  500.                                 1   1
  129     41662 2          2.339         1.                     500.590.  500.                                 1   1
  130       113 2     .308 3.958 444.8                          12992252  2252
  131        22 1          3.693         1.                     378.378.  378.                                 1   1
  131      3012 1     .038  .427 6.673                          853.1075  853.
  131     4202211          2.686         1.                     400.480.  400.                                 1   1
  131     4202413          2.526         1.                     400.480.  400.                                 1   1
  134        12 1            .89       .999                     11361136  1136                                 1   1
  134        13 1           5.34       .999                     99999999  100.                                 1   1
  134       120 1      .56  6.16 105.3                          853.1075  853.
  134       120 2      .55  6.13 107.7                          853.1075  853.
  134      3012 1     .071  .755 12.92                          853.1075  853.
  134      3012 2     .071  .755 12.79                          853.1075  853.
  136        16 1          1.097         1.                     12801280  1280                                 1   1
  136        17 1           7.68         1.                     99999999  100.                                 1   1
  136       120 1 T    .44   4.3  66.6                          776.977.  776.
  136       120 2 T    .44  4.33  66.6                          776.977.  776.
  136       131 1     .358 3.383 52.96                          776.956.  717.
  136       138 1      .65  6.46 100.8                          776.977.  776.
...
99999
DCSC
(De ) O  (Pa )NcEPB      (Xmin)(Xmax)( Xv )C ( Vsp) (Ext)Nst(Cn)(Ce)(Cq)(1)(2)(3)(4)(5)(6)(7)(8)(9)(10
  235     7236 1          -.637 -.637 -.637X  -.637   235   173223381732
 7190     7197 2           -.85  -.85  -.85X   -.85  7190   216529222922
  299     3005 1          -.985 -.985 -.986X  -.986   299   160221636666
 3007     3006 1          -.985 -.985 -.986X  -.986  3007   16002163288.
 3007     3050 1         -.8847-.8847 -.856X  -.856  3007   207828062078
 6400     6509 3           -.72  -.72  -.72X   -.72  6400   19922685127.
 5436     5437 1         -1.908-1.908-1.908X -1.908  5436   155919921992
  114      115 1         -2.124-2.124-2.124X -2.124   114   193121241931
 6400     6507 4           -.72  -.72  -.72X   -.72  6400   199226851992
 5580     6517 1         -1.096-1.096-1.096X -1.096  5580   19922685 85.
 8400     8403 1          -.832 -.832 -.832X  -.832  8400   159317532151
  277    45074 2                      1.575X  1.575   277   360.454.454.
43952     5572 5  L       -1.88 -1.88 -1.88X  -1.88 43952   151520462046
 6440     7306 1          -1.58 -1.58 -1.58X  -1.58  6440   164522211645
 9754     1343 7                     13.127X 13.127  9754   999999999999
43958     6510 1           -.88  -.88  -.88X   -.88 43958   19922685100.
 6489     6487 1          -5.53 -5.53 -5.53X  -5.53  6489   558.686.150.
 6700     6701 1           -.79  -.79  -.79X   -.79  6700   19922685107.
 6700     6702 1         -1.096-1.096-1.096X -1.096  6700   19922685 90.
43799     6934 3         -9.565-9.565-9.565X -9.565 43799   343.462.558.
 7100     7101 1          -.953 -.953 -.953X  -.953  7100   17322338467.
 7100     7102 1          -.953 -.953 -.953X  -.953  7100   19492631150.
 6360     6446 2 T         -.85  -.85  -.85X   -.85  6360   216529222922
43959     6511 2           -.72  -.72  -.72X   -.72 43959   19922685100.
 7100     7235 1          -.536 -.536 -.536X  -.536  7100   19492631100.
 7113     7238 1         -1.412-1.412-1.412X -1.412  7113   21652923 20.
 7200     7201 1           -.95  -.95  -.95X   -.95  7200   19492631150.
43800     4508 1          -6.51 -6.51 -6.51X  -6.51 43800   210.265. 30.
43955     6512 1          -1.37 -1.37 -1.37X  -1.37 43955   16891689 30.
 7300     7301 1           -.95  -.95  -.95X   -.95  7300   12991949 15.
 7300     7302 1           -.95  -.95  -.95X   -.95  7300   142919491732
43954     6513 1          -1.37 -1.37 -1.37X  -1.37 43954   168916891921
 8400     8404 2          -.832 -.832 -.832X  -.832  8400   159317532151
 7591     5590 1         -1.588-1.588-1.588X -1.588  7591   142919491429
 8500     8406 2          -.832 -.832 -.832X  -.832  8500   159317532151
 8500     8405 1          -.832 -.832 -.832X  -.832  8500   159317532151
 8100     8101 1         -1.971-1.971-1.971X -1.971  8100   20182724 86.
 8100     8102 2         -1.971-1.971-1.971X -1.971  8100   20182724125.
 8100     8103 1          -.911 -.911 -.911X  -.911  8100   194021342619
 8100     8104 2          -.911 -.911 -.911X  -.911  8100   194021342619
 8200     8201 1           -.91  -.91  -.91X   -.91  8200   194021342619
 8200     8202 2           -.91  -.91  -.91X   -.91  8200   194021342619
 8200     8203 1         -1.273-1.273-1.273X -1.273  8200   173219052338
 8200     8204 2         -1.273-1.273-1.273X -1.273  8200   173219052338
 8300     8301 1         -1.273-1.273-1.273X -1.273  8300   173219052338
 8300     8302 2         -1.273-1.273-1.273X -1.273  8300   173219052338
 8300     8303 1         -1.219-1.219-1.219X -1.219  8300   164518102221
 8300     8304 2         -1.219-1.219-1.219X -1.219  8300   164518102221
 8400     8401 1         -1.219-1.219-1.219X -1.219  8400   164518102221
 8400     8402 2         -1.219-1.219-1.219X -1.219  8400   164518102221
 5436     5575 2         -1.908-1.908-1.908X -1.908  5436   155921042104
 9753     1309 6                     13.127X 13.127  9753   999999999999
 6360     6080 5          -.598 -.598 -.598X  -.598  6360   173423412341
 6360     6443 2          -.554 -.554 -.554X  -.554  6360   173423412341
 6410     6430 1                         .8X     .8  6410   22522252 47.
 4581    46496 2 T                   10.502X 10.502  4581   999999999999
 6700     6703 2           -.79  -.79  -.79X   -.79  6700   19922698139.
 7200     7203 2           -.95  -.95  -.95X   -.95  7200   19492631 54.
 7200     7209 3          -.952 -.952 -.952X  -.952  7200   19492631100.
 7300     7303 2           -.95  -.95  -.95X   -.95  7300   12991949 34.
 7300     7304 2           -.95  -.95  -.95X   -.95  7300   14291949 60.
 7300     7305 3          -.952 -.952 -.952X  -.952  7300   14441949 47.
   62       65 1          -.749 -.749 -.749X  -.749    62   999999999999
   63       65 2          -.749 -.749 -.749X  -.749    63   999999999999
   64       65 3          -.749 -.749 -.749X  -.749    64   999999999999
   65       69 1          -.778 -.778 -.778X  -.778    65   999999999999
   65       70 2          -.778 -.778 -.778X  -.778    65   999999999999
   65       71 3          -.778 -.778 -.778X  -.778    65   999999999999
   72       73 1          -.915 -.915 -.915X  -.915    72   368441733683
   72       74 2          -.915 -.915 -.915X  -.915    72   368441733683
   72       75 3          -.915 -.915 -.915X  -.915    72   368441733683
   78       82 1                       1.26X   1.26    78   450.450.598.
  122      125 1         -2.051-2.051-2.051X -2.051   122   19312251532.
  122      130 2         -2.051-2.051-2.051X -2.051   122   19312251532.
  127      129 1                        .76X    .76   127   956.956.912.
  128      129 2                        .76X    .76   128   956.956.912.
  225     4504 1          -5.93 -5.93 -5.93X  -5.93   225   210.265.150.
  225     4505 2          -9.53 -9.53 -9.53X  -9.53   225   438.478. 75.
  231     4507 1          -5.93 -5.93 -5.93X  -5.93   231   210.265. 93.
  231     4511 2         -11.27-11.27-11.27X -11.27   231   438.478.160.
  233       92 1          -1.86 -1.86 -1.86X  -1.86   233   173220782078
  233       93 2          -1.27 -1.27 -1.27X  -1.27   233   173220782078
  233       94 3          -1.27 -1.27 -1.27X  -1.27   233   173220782078
  235     7237 2          -.637 -.637 -.637X  -.637   235   173223381732
 4502     4540 2         -6.127-6.127-6.127X -6.127  4502   438.592.160.
 4502     4541 1         -5.959-5.959-5.959X -5.959  4502   233.294. 50.
 4510      231 1          -6.51 -6.51 -6.51X  -6.51  4510   210.265. 30.
 4522     4524 1          -5.73 -5.73 -5.73X  -5.73  4522   398.538.225.
 4531     4588 3         -1.355-1.355-1.355X -1.355  4531   187125252460
 4565     4496 3          -1.47 -1.47 -1.47X  -1.47  4565   170723042716
 4565     4497 2         -1.629-1.629-1.629X -1.629  4565   170723042716
 4565     4563 1         -1.628-1.628-1.628X -1.628  4565   170723042716
 4574     4565 3         -1.515-1.515-1.515X -1.515  4574   160721692716
 4578     4565 1         -2.064-2.064-2.064X -2.064  4578   160721692716
 4579     4565 2         -2.064-2.064-2.064X -2.064  4579   160721692716
 7100     7103 2           -.95  -.95  -.95X   -.95  7100   17322338 77.
 7100     7104 2           -.95  -.95  -.95X   -.95  7100   19492631 71.
 7100     7105 3          -.952 -.952 -.952X  -.952  7100   19492631100.
43672     4591 1         -1.652-1.652-1.652X -1.652 43672   151220411665
43673     4595 2         -1.256-1.256-1.256X -1.256 43673   187125252460
43797     6898 1          -9.88 -9.88 -9.88X  -9.88 43797   343.462.478.
43798     6899 2          -9.88 -9.88 -9.88X  -9.88 43798   343.462.494.
43956     6515 2          -1.14 -1.14 -1.14X  -1.14 43956   19922598200.
43957     6514 2          -1.14 -1.14 -1.14X  -1.14 43957   19922598400.
 7593     5590 2         -1.588-1.588-1.588X -1.588  7593   142919491429
  277    45073 1                      1.575X  1.575   277   360.454.454.
 5570     5577 2  L      -1.539-1.539-1.539X -1.539  5570   15591992686.
41001    41028 1                     15.753X 15.753 41001   999999999999
41002    41029 2                     15.753X 15.753 41002   999999999999
41006    10701 2                      15.59X  15.59 41006   999999999999
41007    10702 3                      15.76X  15.76 41007   999999999999
41132    10703 3                     16.541X 16.541 41132   999999999999
43166    10619 3                     17.328X 17.328 43166   999.999.999.
43167    10620 4                     15.753X 15.753 43167   999.999.999.
41003    41072 1                        21.X    21. 41003   999999999999
 9245    10617 1                        30.X    30.  9245   999999999999
 9301    10618 2                        30.X    30.  9301   999999999999
 4586    46495 1 T                   10.502X 10.502  4586   999999999999
 6444     6442 1         -.8847-.8847-.8847X -.8847  6444   207828062078
 6082    47222 5 T        -.598 -.598 -.598X  -.598  6082   173423412341
47222     6445 2          -.554 -.554 -.554X  -.554 47222   173423412341
 5166     6715 5 T                    16.28X  16.28  5166    40. 48. 48.
 5160     5159 7 T                    16.28X  16.28  5160    40. 43. 48.
 5158     5157 6 T                    16.28X  16.28  5158    40. 43. 48.
48552    48570 1          -.873 -.873 -.873X  -.873 48552   194921432500
 8300    48562 4          -1.26 -1.26 -1.26X  -1.26  8300   194921442500
 8200    48560 4          -1.26 -1.26 -1.26X  -1.26  8200   194921442500
 8300    48565 3         -1.205-1.205-1.205X -1.205  8300   181920012500
 8300    48564 4         -1.205-1.205-1.205X -1.205  8300   181920012500
 8200    48561 3          -1.26 -1.26 -1.26X  -1.26  8200   194921442500
 8400    48569 2          -.873 -.873 -.873X  -.873  8400   194921432500
 8200    48558 4          -.968 -.968 -.968X  -.968  8200   212223342500
 8400    48568 1          -.873 -.873 -.873X  -.873  8400   194921432500
 8400    48567 3         -1.205-1.205-1.205X -1.205  8400   181920012500
 8300    48563 3          -1.26 -1.26 -1.26X  -1.26  8300   194921442500
 8100    48557 3          -.968 -.968 -.968X  -.968  8100   212223342500
48552    48571 2          -.873 -.873 -.873X  -.873 48552   194921432500
 8100    48556 4          -.968 -.968 -.968X  -.968  8100   212223342500
 8200    48559 3          -.968 -.968 -.968X  -.968  8200   212223342500
 8400    48566 4         -1.205-1.205-1.205X -1.205  8400   181920012500
48407    48406 1                       1.26X   1.26 48407   450.450.450.
99999
DBSH
(NFr) O (NTo) Nc C (Vmn (Vmx Bctrl (Qini) T A (Extr
   56            D 0400 1900    56  -180. C         
(G  O E (U) UOp (Sht ) M
10        2   1  -180. S
FBAN
(NFr) O (NTo) Nc C (Vmn (Vmx Bctrl (Qini) T A (Extr
   57            D 0400 1900    57  -360. C         
(G  O E (U) UOp (Sht ) M
10        3   2  -180. S
FBAN
(NFr) O (NTo) Nc C (Vmn (Vmx Bctrl (Qini) T A (Extr
   60      62  1 F 0900 1046    60  -330. C      60 
(G  O E (U) UOp (Sht ) M
10        1   1  -330. N
FBAN
(NFr) O (NTo) Nc C (Vmn (Vmx Bctrl (Qini) T A (Extr
   60      63  2 F 0900 1046    60  -330. C      60 
(G  O E (U) UOp (Sht ) M
10        1   1  -330. N
FBAN
(NFr) O (NTo) Nc C (Vmn (Vmx Bctrl (Qini) T A (Extr
   60      64  3 F 0900 1046    60  -330. C      60 
(G  O E (U) UOp (Sht ) M
10        1   1  -330. N
FBAN
(NFr) O (NTo) Nc C (Vmn (Vmx Bctrl (Qini) T A (Extr
   60      62  1 F 0900 1046    62  -150. C      62 
(G  O E (U) UOp (Sht ) M
10        1   1  -150. N
FBAN
(NFr) O (NTo) Nc C (Vmn (Vmx Bctrl (Qini) T A (Extr
   60      63  2 F 0900 1046    63  -150. C      63 
(G  O E (U) UOp (Sht ) M
10        1   1  -150. N
FBAN
(NFr) O (NTo) Nc C (Vmn (Vmx Bctrl (Qini) T A (Extr
   60      64  3 F 0900 1046    64  -150. C      64 
(G  O E (U) UOp (Sht ) M
10        1   1  -150. N
FBAN
(NFr) O (NTo) Nc C (Vmn (Vmx Bctrl (Qini) T A (Extr
   65            D 0900 1046    65  -660. C         
(G  O E (U) UOp (Sht ) M
10        2   2  -330. S
FBAN
(NFr) O (NTo) Nc C (Vmn (Vmx Bctrl (Qini) T A (Extr
   67            D 0400 1900    67  -360. C         
(G  O E (U) UOp (Sht ) M
10        3   2  -180. S
FBAN
(NFr) O (NTo) Nc C (Vmn (Vmx Bctrl (Qini) T A (Extr
   69      72  1 F 0900 1046    69  -330. C      69 
(G  O E (U) UOp (Sht ) M
10        1   1  -330. N
FBAN
(NFr) O (NTo) Nc C (Vmn (Vmx Bctrl (Qini) T A (Extr
   72      70  2 F 0900 1046    70  -330. C      70 
(G  O E (U) UOp (Sht ) M
10        1   1  -330. N
FBAN
(NFr) O (NTo) Nc C (Vmn (Vmx Bctrl (Qini) T A (Extr
   72      71  3 F 0900 1046    71  -330. C      71 
(G  O E (U) UOp (Sht ) M
10        1   1  -330. N
FBAN
(NFr) O (NTo) Nc C (Vmn (Vmx Bctrl (Qini) T A (Extr
   72            D 0900 1046    72 -987.6 C         
(G  O E (U) UOp (Sht ) M
10        3   3 -329.2 S
FBAN
(NFr) O (NTo) Nc C (Vmn (Vmx Bctrl (Qini) T A (Extr
   69      72  1 F 0900 1046    72  -330. C      72 
(G  O E (U) UOp (Sht ) M
10        1   1  -330. N
FBAN
(NFr) O (NTo) Nc C (Vmn (Vmx Bctrl (Qini) T A (Extr
   72      70  2 F 0900 1046    72  -330. C      72 
(G  O E (U) UOp (Sht ) M
10        1   1  -330. N
FBAN
(NFr) O (NTo) Nc C (Vmn (Vmx Bctrl (Qini) T A (Extr
   72      71  3 F 0900 1046    72  -330. C      72 
(G  O E (U) UOp (Sht ) M
10        1   1  -330. N
FBAN
(NFr) O (NTo) Nc C (Vmn (Vmx Bctrl (Qini) T A (Extr
   73      76  1 F 0900 1046    76  -330. C      76 
(G  O E (U) UOp (Sht ) M
10        1   1  -330. N
FBAN
(NFr) O (NTo) Nc C (Vmn (Vmx Bctrl (Qini) T A (Extr
   76      74  2 F 0900 1046    76  -330. C      76 
(G  O E (U) UOp (Sht ) M
10        1   1  -330. N
FBAN
(NFr) O (NTo) Nc C (Vmn (Vmx Bctrl (Qini) T A (Extr
   76      75  3 F 0900 1046    76  -330. C      76 
(G  O E (U) UOp (Sht ) M
10        1   1  -330. N
FBAN
(NFr) O (NTo) Nc C (Vmn (Vmx Bctrl (Qini) T A (Extr
   79            D 0400 1900    79  -180. C         
(G  O E (U) UOp (Sht ) M
10        2   1  -180. S
FBAN
(NFr) O (NTo) Nc C (Vmn (Vmx Bctrl (Qini) T A (Extr
   85            F 1000 1100    85  1540. C         
(G  O E (U) UOp (Sht ) M
10        3   3   280. S
20        2   2   350. S
FBAN
(NFr) O (NTo) Nc C (Vmn (Vmx Bctrl (Qini) T A (Extr
   86            F 0950 1050    86 1523.4 C         
(G  O E (U) UOp (Sht ) M
10        2   2    59. S
20        3   3  220.8 S
30        4   3   237. S
40        1   0  279.8 S
50        2   0   294. S
60        2   1   296. S
70        2   2  -132. S
FBAN
(NFr) O (NTo) Nc C (Vmn (Vmx Bctrl (Qini) T A (Extr
   87            F 1000 1100    87  -200. C         
(G  O E (U) UOp (Sht ) M
10        1   1  -200. S
FBAN
(NFr) O (NTo) Nc C (Vmn (Vmx Bctrl (Qini) T A (Extr
   90            D 0950 1050    90   -60. C         
(G  O E (U) UOp (Sht ) M
10        1   1   -60. S
FBAN
(NFr) O (NTo) Nc C (Vmn (Vmx Bctrl (Qini) T A (Extr
  235      92  1 F 1000 1100    92   -73. C      92 
(G  O E (U) UOp (Sht ) M
10        1   1   -73. N
FBAN
(NFr) O (NTo) Nc C (Vmn (Vmx Bctrl (Qini) T A (Extr
  235      93  2 F 1000 1100    93  -136. C      93 
(G  O E (U) UOp (Sht ) M
10        1   1  -136. N
FBAN
(NFr) O (NTo) Nc C (Vmn (Vmx Bctrl (Qini) T A (Extr
  235      94  3 F 1000 1100    94  -136. C      94 
(G  O E (U) UOp (Sht ) M
10        1   1  -136. N
FBAN
(NFr) O (NTo) Nc C (Vmn (Vmx Bctrl (Qini) T A (Extr
   99     101  1 D 1000 1100    99  -90.7 C      99 
(G  O E (U) UOp (Sht ) M
10        1   1  -90.7 S
FBAN
(NFr) O (NTo) Nc C (Vmn (Vmx Bctrl (Qini) T A (Extr
  210     100  1 D 1000 1100   100        C     100 
...